@<TRIPOS>MOLECULE
HEM-IC6
73   80    1
SMALL
USER_CHARGES


@<TRIPOS>ATOM
      1 NC         30.2956  116.7891   54.8335 nc     1 HEM         0.0066 
      2 C1C        31.2695  115.8992   55.2034 cc     1 HEM        -0.0192 
      3 C4C        29.1346  116.0899   54.7121 cc     1 HEM        -0.0193 
      4 C2C        30.7076  114.5682   55.3388 cc     1 HEM         0.0114 
      5 C3C        29.3634  114.6777   55.0244 cc     1 HEM        -0.0357 
      6 CHD        27.9087  116.6383   54.3029 cg     1 HEM        -0.1482 
      7 HHD        27.0706  115.9526   54.2276 ha     1 HEM         0.1094 
      8 C1D        27.6475  117.9601   53.9322 cd     1 HEM         0.0095 
      9 ND         28.5613  118.9762   53.9481 nd     1 HEM        -0.2714 
     10 C4D        27.9260  120.0895   53.4683 cd     1 HEM         0.0948 
     11 C3D        26.5268  119.7786   53.1554 cd     1 HEM        -0.0248 
     12 C2D        26.3621  118.4471   53.4452 cd     1 HEM         0.0617 
     13 CHA        28.5371  121.3336   53.2790 cg     1 HEM        -0.1952 
     14 HHA        27.9007  122.1310   52.9093 ha     1 HEM         0.1986 
     15 C1A        29.8795  121.6636   53.5022 cc     1 HEM         0.0036 
     16 C2A        30.4894  122.9626   53.2054 cc     1 HEM        -0.0115 
     17 C4A        32.0115  121.4724   53.9957 cc     1 HEM        -0.0470 
     18 NA         30.8197  120.7999   53.9858 nc     1 HEM         0.0005 
     19 C3A        31.8193  122.8354   53.5162 cc     1 HEM         0.0457 
     20 CHB        33.2397  120.9235   54.3660 cg     1 HEM        -0.1428 
     21 HHB        34.0893  121.5998   54.3310 ha     1 HEM         0.1299 
     22 C1B        33.5129  119.6002   54.7477 cd     1 HEM         0.0137 
     23 C2B        34.8321  119.0790   55.0510 cd     1 HEM         0.0876 
     24 NB         32.5749  118.6108   54.8573 nd     1 HEM        -0.2469 
     25 C4B        33.2311  117.4684   55.2051 cd     1 HEM         0.0605 
     26 CHC        32.6191  116.2229   55.3907 cg     1 HEM        -0.1605 
     27 HHC        33.2686  115.4058   55.6903 ha     1 HEM         0.1219 
     28 FE         30.4397  118.9484   54.9744 fe     1 HEM         0.2492 
     29 C3B        34.6634  117.7355   55.3467 cd     1 HEM        -0.0221 
     30 CAB        35.6585  116.7299   55.6807 cc     1 HEM        -0.0823 
     31 HAB        35.3533  115.6997   55.4890 ha     1 HEM         0.0937 
     32 CBB        36.8914  116.9067   56.1913 cd     1 HEM        -0.4016 
     33 HBB1       37.2819  117.8818   56.4639 ha     1 HEM         0.1396 
     34 HBB2       37.5403  116.0547   56.3797 ha     1 HEM         0.1396 
     35 CAC        28.3272  113.6572   55.0144 cd     1 HEM        -0.0304 
     36 HAC        27.3725  113.9765   54.5947 ha     1 HEM         0.1082 
     37 CBC        28.3972  112.3860   55.4519 cc     1 HEM        -0.4401 
     38 HBC1       29.3074  111.9471   55.8493 ha     1 HEM         0.1429 
     39 HBC2       27.5289  111.7336   55.3986 ha     1 HEM         0.1429 
     40 CMB        36.1149  119.8516   54.9903 c3     1 HEM        -0.1304 
     41 HMB1       36.4101  120.2492   55.9728 hc     1 HEM         0.0349 
     42 HMB2       36.9388  119.2181   54.6409 hc     1 HEM         0.0349 
     43 HMB3       36.0374  120.7067   54.3102 hc     1 HEM         0.0349 
     44 CMC        31.4541  113.3430   55.7745 c3     1 HEM        -0.1062 
     45 HMC1       30.8135  112.6917   56.3814 hc     1 HEM         0.0363 
     46 HMC2       31.8074  112.7397   54.9243 hc     1 HEM         0.0363 
     47 HMC3       32.3335  113.5997   56.3756 hc     1 HEM         0.0363 
     48 CMD        25.1212  117.6161   53.3087 c3     1 HEM        -0.2143 
     49 HMD1       25.2960  116.7197   52.6971 hc     1 HEM         0.0588 
     50 HMD2       24.7550  117.2685   54.2852 hc     1 HEM         0.0588 
     51 HMD3       24.3115  118.1840   52.8403 hc     1 HEM         0.0588 
     52 CMA        32.8979  123.8718   53.3935 c3     1 HEM        -0.1497 
     53 HMA1       33.2520  124.2126   54.3766 hc     1 HEM         0.0434 
     54 HMA2       33.7745  123.4847   52.8557 hc     1 HEM         0.0434 
     55 HMA3       32.5393  124.7538   52.8532 hc     1 HEM         0.0434 
     56 CAA        29.8014  124.1934   52.6806 c3     1 HEM        -0.0691 
     57 HAA1       28.7539  124.2016   53.0044 hc     1 HEM         0.0276 
     58 HAA2       30.2441  125.0982   53.1100 hc     1 HEM         0.0276 
     59 CAD        25.4776  120.7479   52.6864 c3     1 HEM        -0.0642 
     60 HAD1       25.8973  121.4514   51.9576 hc     1 HEM         0.0341 
     61 HAD2       24.6745  120.2233   52.1564 hc     1 HEM         0.0341 
     62 CBA        29.8425  124.3074   51.1408 c3     1 HEM         0.0116 
     63 HBA1       30.7031  123.7559   50.7390 h1     1 HEM        -0.0101 
     64 HBA2       29.9924  125.3530   50.8404 h1     1 HEM        -0.0101 
     65 CBD        24.8709  121.5599   53.8512 c3     1 HEM        -0.0034 
     66 HBD1       25.6728  122.0525   54.4099 h1     1 HEM         0.0164 
     67 HBD2       24.3740  120.8852   54.5630 h1     1 HEM         0.0164 
     68 CGD        23.8619  122.6337   53.4238 c      1 HEM         0.5848 
     69 CGA        28.5867  123.7667   50.4635 c      1 HEM         0.6582 
     70 O1A        28.0036  124.4923   49.6027 o      1 HEM        -0.6427 
     71 O1D        22.6964  122.5585   53.9165 o      1 HEM        -0.5791 
     72 O2A        28.1449  122.6181   50.7249 o      1 HEM        -0.6427 
     73 O2D        24.1948  123.5194   52.5965 o      1 HEM        -0.5791 
@<TRIPOS>BOND
     1    1    2 1    
     2    1    3 1    
     3    1   28 1    
     4    2    4 1    
     5    2   26 1    
     6    3    5 1    
     7    3    6 1    
     8    4    5 1    
     9    4   44 1    
    10    5   35 1    
    11    6    7 1    
    12    6    8 1    
    13    8    9 1    
    14    8   12 1    
    15    9   10 1    
    16    9   28 1    
    17   10   11 1    
    18   10   13 1    
    19   11   12 1    
    20   11   59 1    
    21   12   48 1    
    22   13   14 1    
    23   13   15 1    
    24   15   16 1    
    25   15   18 1    
    26   16   19 1    
    27   16   56 1    
    28   17   18 1    
    29   17   19 1    
    30   17   20 1    
    31   18   28 1    
    32   19   52 1    
    33   20   21 1    
    34   20   22 1    
    35   22   23 1    
    36   22   24 1    
    37   23   29 1    
    38   23   40 1    
    39   24   25 1    
    40   24   28 1    
    41   25   26 1    
    42   25   29 1    
    43   26   27 1    
    44   29   30 1    
    45   30   31 1    
    46   30   32 1    
    47   32   33 1    
    48   32   34 1    
    49   35   36 1    
    50   35   37 1    
    51   37   38 1    
    52   37   39 1    
    53   40   41 1    
    54   40   42 1    
    55   40   43 1    
    56   44   45 1    
    57   44   46 1    
    58   44   47 1    
    59   48   49 1    
    60   48   50 1    
    61   48   51 1    
    62   52   53 1    
    63   52   54 1    
    64   52   55 1    
    65   56   57 1    
    66   56   58 1    
    67   56   62 1    
    68   59   60 1    
    69   59   61 1    
    70   59   65 1    
    71   62   63 1    
    72   62   64 1    
    73   62   69 1    
    74   65   66 1    
    75   65   67 1    
    76   65   68 1    
    77   68   71 1    
    78   68   73 1    
    79   69   70 1    
    80   69   72 1    
@<TRIPOS>SUBSTRUCTURE
     1 HEM         1 GROUP             0       ****    0 ROOT    
